Compress.alpha CPI lab3 sim-outorder

BIMOD

user@ubuntu:~/Downloads/simplesim-3.0$ ./sim-outorder -bpred bimod compress95.alpha -O
sim-outorder: SimpleScalar/Alpha Tool Set version 3.0 of August, 2003.
Copyright (c) 1994-2003 by Todd M. Austin, Ph.D. and SimpleScalar, LLC.
All Rights Reserved. This version of SimpleScalar is licensed for academic
non-commercial use.  No portion of this work may be used by any commercial
entity, or for any commercial purpose, without the prior written permission
of SimpleScalar, LLC (info@simplescalar.com).

warning: section `.comment' ignored...
sim: command line: ./sim-outorder -bpred bimod compress95.alpha -O 

sim: simulation started @ Wed Dec 29 21:48:52 2021, options follow:

sim-outorder: This simulator implements a very detailed out-of-order issue
superscalar processor with a two-level memory system and speculative
execution support.  This simulator is a performance simulator, tracking the
latency of all pipeline operations.

# -config                     # load configuration from a file
# -dumpconfig                 # dump configuration to a file
# -h                    false # print help message    
# -v                    false # verbose operation     
# -d                    false # enable debug message  
# -i                    false # start in Dlite debugger
-seed                       1 # random number generator seed (0 for timer seed)
# -q                    false # initialize and terminate immediately
# -chkpt               <null> # restore EIO trace execution from <fname>
# -redir:sim           <null> # redirect simulator output to file (non-interactive only)
# -redir:prog          <null> # redirect simulated program output to file
-nice                       0 # simulator scheduling priority
-max:inst                   0 # maximum number of inst's to execute
-fastfwd                    0 # number of insts skipped before timing starts
# -ptrace              <null> # generate pipetrace, i.e., <fname|stdout|stderr> <range>
-fetch:ifqsize              4 # instruction fetch queue size (in insts)
-fetch:mplat                3 # extra branch mis-prediction latency
-fetch:speed                1 # speed of front-end of machine relative to execution core
-bpred                  bimod # branch predictor type {nottaken|taken|perfect|bimod|2lev|comb}
-bpred:bimod     2048 # bimodal predictor config (<table size>)
-bpred:2lev      1 1024 8 0 # 2-level predictor config (<l1size> <l2size> <hist_size> <xor>)
-bpred:comb      1024 # combining predictor config (<meta_table_size>)
-bpred:ras                  8 # return address stack size (0 for no return stack)
-bpred:btb       512 4 # BTB config (<num_sets> <associativity>)
# -bpred:spec_update       <null> # speculative predictors update in {ID|WB} (default non-spec)
-decode:width               4 # instruction decode B/W (insts/cycle)
-issue:width                4 # instruction issue B/W (insts/cycle)
-issue:inorder          false # run pipeline with in-order issue
-issue:wrongpath         true # issue instructions down wrong execution paths
-commit:width               4 # instruction commit B/W (insts/cycle)
-ruu:size                  16 # register update unit (RUU) size
-lsq:size                   8 # load/store queue (LSQ) size
-cache:dl1       dl1:128:32:4:l # l1 data cache config, i.e., {<config>|none}
-cache:dl1lat               1 # l1 data cache hit latency (in cycles)
-cache:dl2       ul2:1024:64:4:l # l2 data cache config, i.e., {<config>|none}
-cache:dl2lat               6 # l2 data cache hit latency (in cycles)
-cache:il1       il1:512:32:1:l # l1 inst cache config, i.e., {<config>|dl1|dl2|none}
-cache:il1lat               1 # l1 instruction cache hit latency (in cycles)
-cache:il2                dl2 # l2 instruction cache config, i.e., {<config>|dl2|none}
-cache:il2lat               6 # l2 instruction cache hit latency (in cycles)
-cache:flush            false # flush caches on system calls
-cache:icompress        false # convert 64-bit inst addresses to 32-bit inst equivalents
-mem:lat         18 2 # memory access latency (<first_chunk> <inter_chunk>)
-mem:width                  8 # memory access bus width (in bytes)
-tlb:itlb        itlb:16:4096:4:l # instruction TLB config, i.e., {<config>|none}
-tlb:dtlb        dtlb:32:4096:4:l # data TLB config, i.e., {<config>|none}
-tlb:lat                   30 # inst/data TLB miss latency (in cycles)
-res:ialu                   4 # total number of integer ALU's available
-res:imult                  1 # total number of integer multiplier/dividers available
-res:memport                2 # total number of memory system ports available (to CPU)
-res:fpalu                  4 # total number of floating point ALU's available
-res:fpmult                 1 # total number of floating point multiplier/dividers available
# -pcstat              <null> # profile stat(s) against text addr's (mult uses ok)
-bugcompat              false # operate in backward-compatible bugs mode (for testing only)

  Pipetrace range arguments are formatted as follows:

    {{@|#}<start>}:{{@|#|+}<end>}

  Both ends of the range are optional, if neither are specified, the entire
  execution is traced.  Ranges that start with a `@' designate an address
  range to be traced, those that start with an `#' designate a cycle count
  range.  All other range values represent an instruction count range.  The
  second argument, if specified with a `+', indicates a value relative
  to the first argument, e.g., 1000:+100 == 1000:1100.  Program symbols may
  be used in all contexts.

    Examples:   -ptrace FOO.trc #0:#1000
                -ptrace BAR.trc @2000:
                -ptrace BLAH.trc :1500
                -ptrace UXXE.trc :
                -ptrace FOOBAR.trc @main:+278

  Branch predictor configuration examples for 2-level predictor:
    Configurations:   N, M, W, X
      N   # entries in first level (# of shift register(s))
      W   width of shift register(s)
      M   # entries in 2nd level (# of counters, or other FSM)
      X   (yes-1/no-0) xor history and address for 2nd level index
    Sample predictors:
      GAg     : 1, W, 2^W, 0
      GAp     : 1, W, M (M > 2^W), 0
      PAg     : N, W, 2^W, 0
      PAp     : N, W, M (M == 2^(N+W)), 0
      gshare  : 1, W, 2^W, 1
  Predictor `comb' combines a bimodal and a 2-level predictor.

  The cache config parameter <config> has the following format:

    <name>:<nsets>:<bsize>:<assoc>:<repl>

    <name>   - name of the cache being defined
    <nsets>  - number of sets in the cache
    <bsize>  - block size of the cache
    <assoc>  - associativity of the cache
    <repl>   - block replacement strategy, 'l'-LRU, 'f'-FIFO, 'r'-random

    Examples:   -cache:dl1 dl1:4096:32:1:l
                -dtlb dtlb:128:4096:32:r

  Cache levels can be unified by pointing a level of the instruction cache
  hierarchy at the data cache hiearchy using the "dl1" and "dl2" cache
  configuration arguments.  Most sensible combinations are supported, e.g.,

    A unified l2 cache (il2 is pointed at dl2):
      -cache:il1 il1:128:64:1:l -cache:il2 dl2
      -cache:dl1 dl1:256:32:1:l -cache:dl2 ul2:1024:64:2:l

    Or, a fully unified cache hierarchy (il1 pointed at dl1):
      -cache:il1 dl1
      -cache:dl1 ul1:256:32:1:l -cache:dl2 ul2:1024:64:2:l



sim: ** starting performance simulation **
warning: partially supported sigaction() call...
Unknown flag: 'O'; Usage: compress [-dfvcV] [-b maxbits] [file ...]

sim: ** simulation statistics **
sim_num_insn                   4908 # total number of instructions committed
sim_num_refs                   1474 # total number of loads and stores committed
sim_num_loads                   841 # total number of loads committed
sim_num_stores             633.0000 # total number of stores committed
sim_num_branches                939 # total number of branches committed
sim_elapsed_time                  1 # total simulation time in seconds
sim_inst_rate             4908.0000 # simulation speed (in insts/sec)
sim_total_insn                 5666 # total number of instructions executed
sim_total_refs                 1596 # total number of loads and stores executed
sim_total_loads                 939 # total number of loads executed
sim_total_stores           657.0000 # total number of stores executed
sim_total_branches              991 # total number of branches executed
sim_cycle                      8373 # total simulation time in cycles
sim_IPC                      0.5862 # instructions per cycle
sim_CPI                      1.7060 # cycles per instruction
sim_exec_BW                  0.6767 # total instructions (mis-spec + committed) per cycle
sim_IPB                      5.2268 # instruction per branch
IFQ_count                     10851 # cumulative IFQ occupancy
IFQ_fcount                     2379 # cumulative IFQ full count
ifq_occupancy                1.2960 # avg IFQ occupancy (insn's)
ifq_rate                     0.6767 # avg IFQ dispatch rate (insn/cycle)
ifq_latency                  1.9151 # avg IFQ occupant latency (cycle's)
ifq_full                     0.2841 # fraction of time (cycle's) IFQ was full
RUU_count                     42672 # cumulative RUU occupancy
RUU_fcount                     1359 # cumulative RUU full count
ruu_occupancy                5.0964 # avg RUU occupancy (insn's)
ruu_rate                     0.6767 # avg RUU dispatch rate (insn/cycle)
ruu_latency                  7.5312 # avg RUU occupant latency (cycle's)
ruu_full                     0.1623 # fraction of time (cycle's) RUU was full
LSQ_count                     12578 # cumulative LSQ occupancy
LSQ_fcount                      107 # cumulative LSQ full count
lsq_occupancy                1.5022 # avg LSQ occupancy (insn's)
lsq_rate                     0.6767 # avg LSQ dispatch rate (insn/cycle)
lsq_latency                  2.2199 # avg LSQ occupant latency (cycle's)
lsq_full                     0.0128 # fraction of time (cycle's) LSQ was full
sim_slip                      54864 # total number of slip cycles
avg_sim_slip                11.1785 # the average slip between issue and retirement
bpred_bimod.lookups            1011 # total number of bpred lookups
bpred_bimod.updates             939 # total number of updates
bpred_bimod.addr_hits           739 # total number of address-predicted hits
bpred_bimod.dir_hits            847 # total number of direction-predicted hits (includes addr-hits)
bpred_bimod.misses               92 # total number of misses
bpred_bimod.jr_hits             160 # total number of address-predicted hits for JR's
bpred_bimod.jr_seen             230 # total number of JR's seen
bpred_bimod.jr_non_ras_hits.PP           79 # total number of address-predicted hits for non-RAS JR's
bpred_bimod.jr_non_ras_seen.PP          117 # total number of non-RAS JR's seen
bpred_bimod.bpred_addr_rate    0.7870 # branch address-prediction rate (i.e., addr-hits/updates)
bpred_bimod.bpred_dir_rate    0.9020 # branch direction-prediction rate (i.e., all-hits/updates)
bpred_bimod.bpred_jr_rate    0.6957 # JR address-prediction rate (i.e., JR addr-hits/JRs seen)
bpred_bimod.bpred_jr_non_ras_rate.PP    0.6752 # non-RAS JR addr-pred rate (ie, non-RAS JR hits/JRs seen)
bpred_bimod.retstack_pushes          125 # total number of address pushed onto ret-addr stack
bpred_bimod.retstack_pops          120 # total number of address popped off of ret-addr stack
bpred_bimod.used_ras.PP          113 # total number of RAS predictions used
bpred_bimod.ras_hits.PP           81 # total number of RAS hits
bpred_bimod.ras_rate.PP    0.7168 # RAS prediction rate (i.e., RAS hits/used RAS)
il1.accesses                   5583 # total number of accesses
il1.hits                       5361 # total number of hits
il1.misses                      222 # total number of misses
il1.replacements                 31 # total number of replacements
il1.writebacks                    0 # total number of writebacks
il1.invalidations                 0 # total number of invalidations
il1.miss_rate                0.0398 # miss rate (i.e., misses/ref)
il1.repl_rate                0.0056 # replacement rate (i.e., repls/ref)
il1.wb_rate                  0.0000 # writeback rate (i.e., wrbks/ref)
il1.inv_rate                 0.0000 # invalidation rate (i.e., invs/ref)
dl1.accesses                   1470 # total number of accesses
dl1.hits                       1099 # total number of hits
dl1.misses                      371 # total number of misses
dl1.replacements                  5 # total number of replacements
dl1.writebacks                    2 # total number of writebacks
dl1.invalidations                 0 # total number of invalidations
dl1.miss_rate                0.2524 # miss rate (i.e., misses/ref)
dl1.repl_rate                0.0034 # replacement rate (i.e., repls/ref)
dl1.wb_rate                  0.0014 # writeback rate (i.e., wrbks/ref)
dl1.inv_rate                 0.0000 # invalidation rate (i.e., invs/ref)
ul2.accesses                    595 # total number of accesses
ul2.hits                        246 # total number of hits
ul2.misses                      349 # total number of misses
ul2.replacements                  0 # total number of replacements
ul2.writebacks                    0 # total number of writebacks
ul2.invalidations                 0 # total number of invalidations
ul2.miss_rate                0.5866 # miss rate (i.e., misses/ref)
ul2.repl_rate                0.0000 # replacement rate (i.e., repls/ref)
ul2.wb_rate                  0.0000 # writeback rate (i.e., wrbks/ref)
ul2.inv_rate                 0.0000 # invalidation rate (i.e., invs/ref)
itlb.accesses                  5583 # total number of accesses
itlb.hits                      5571 # total number of hits
itlb.misses                      12 # total number of misses
itlb.replacements                 0 # total number of replacements
itlb.writebacks                   0 # total number of writebacks
itlb.invalidations                0 # total number of invalidations
itlb.miss_rate               0.0021 # miss rate (i.e., misses/ref)
itlb.repl_rate               0.0000 # replacement rate (i.e., repls/ref)
itlb.wb_rate                 0.0000 # writeback rate (i.e., wrbks/ref)
itlb.inv_rate                0.0000 # invalidation rate (i.e., invs/ref)
dtlb.accesses                  1502 # total number of accesses
dtlb.hits                      1490 # total number of hits
dtlb.misses                      12 # total number of misses
dtlb.replacements                 0 # total number of replacements
dtlb.writebacks                   0 # total number of writebacks
dtlb.invalidations                0 # total number of invalidations
dtlb.miss_rate               0.0080 # miss rate (i.e., misses/ref)
dtlb.repl_rate               0.0000 # replacement rate (i.e., repls/ref)
dtlb.wb_rate                 0.0000 # writeback rate (i.e., wrbks/ref)
dtlb.inv_rate                0.0000 # invalidation rate (i.e., invs/ref)
sim_invalid_addrs                 0 # total non-speculative bogus addresses seen (debug var)
ld_text_base           0x0120000000 # program text (code) segment base
ld_text_size                  65536 # program text (code) size in bytes
ld_data_base           0x0140000000 # program initialized data segment base
ld_data_size                 743728 # program init'ed `.data' and uninit'ed `.bss' size in bytes
ld_stack_base          0x011ff9b000 # program stack segment base (highest address in stack)
ld_stack_size                 16384 # program initial stack size
ld_prog_entry          0x0120002050 # program entry point (initial PC)
ld_environ_base        0x011ff97000 # program environment base address address
ld_target_big_endian              0 # target executable endian-ness, non-zero if big endian
mem.page_count                   15 # total number of pages allocated
mem.page_mem                   120k # total size of memory pages allocated
mem.ptab_misses                 191 # total first level page table misses
mem.ptab_accesses            200914 # total page table accesses
mem.ptab_miss_rate           0.0010 # first level page table miss rate

------------------------------------------------------------------------------------------------------------------------------------

NOT TAKEN

user@ubuntu:~/Downloads/simplesim-3.0$ ./sim-outorder -bpred nottaken compress95.alpha -O
sim-outorder: SimpleScalar/Alpha Tool Set version 3.0 of August, 2003.
Copyright (c) 1994-2003 by Todd M. Austin, Ph.D. and SimpleScalar, LLC.
All Rights Reserved. This version of SimpleScalar is licensed for academic
non-commercial use.  No portion of this work may be used by any commercial
entity, or for any commercial purpose, without the prior written permission
of SimpleScalar, LLC (info@simplescalar.com).

warning: section `.comment' ignored...
sim: command line: ./sim-outorder -bpred nottaken compress95.alpha -O 

sim: simulation started @ Wed Dec 29 21:49:43 2021, options follow:

sim-outorder: This simulator implements a very detailed out-of-order issue
superscalar processor with a two-level memory system and speculative
execution support.  This simulator is a performance simulator, tracking the
latency of all pipeline operations.

# -config                     # load configuration from a file
# -dumpconfig                 # dump configuration to a file
# -h                    false # print help message    
# -v                    false # verbose operation     
# -d                    false # enable debug message  
# -i                    false # start in Dlite debugger
-seed                       1 # random number generator seed (0 for timer seed)
# -q                    false # initialize and terminate immediately
# -chkpt               <null> # restore EIO trace execution from <fname>
# -redir:sim           <null> # redirect simulator output to file (non-interactive only)
# -redir:prog          <null> # redirect simulated program output to file
-nice                       0 # simulator scheduling priority
-max:inst                   0 # maximum number of inst's to execute
-fastfwd                    0 # number of insts skipped before timing starts
# -ptrace              <null> # generate pipetrace, i.e., <fname|stdout|stderr> <range>
-fetch:ifqsize              4 # instruction fetch queue size (in insts)
-fetch:mplat                3 # extra branch mis-prediction latency
-fetch:speed                1 # speed of front-end of machine relative to execution core
-bpred               nottaken # branch predictor type {nottaken|taken|perfect|bimod|2lev|comb}
-bpred:bimod     2048 # bimodal predictor config (<table size>)
-bpred:2lev      1 1024 8 0 # 2-level predictor config (<l1size> <l2size> <hist_size> <xor>)
-bpred:comb      1024 # combining predictor config (<meta_table_size>)
-bpred:ras                  8 # return address stack size (0 for no return stack)
-bpred:btb       512 4 # BTB config (<num_sets> <associativity>)
# -bpred:spec_update       <null> # speculative predictors update in {ID|WB} (default non-spec)
-decode:width               4 # instruction decode B/W (insts/cycle)
-issue:width                4 # instruction issue B/W (insts/cycle)
-issue:inorder          false # run pipeline with in-order issue
-issue:wrongpath         true # issue instructions down wrong execution paths
-commit:width               4 # instruction commit B/W (insts/cycle)
-ruu:size                  16 # register update unit (RUU) size
-lsq:size                   8 # load/store queue (LSQ) size
-cache:dl1       dl1:128:32:4:l # l1 data cache config, i.e., {<config>|none}
-cache:dl1lat               1 # l1 data cache hit latency (in cycles)
-cache:dl2       ul2:1024:64:4:l # l2 data cache config, i.e., {<config>|none}
-cache:dl2lat               6 # l2 data cache hit latency (in cycles)
-cache:il1       il1:512:32:1:l # l1 inst cache config, i.e., {<config>|dl1|dl2|none}
-cache:il1lat               1 # l1 instruction cache hit latency (in cycles)
-cache:il2                dl2 # l2 instruction cache config, i.e., {<config>|dl2|none}
-cache:il2lat               6 # l2 instruction cache hit latency (in cycles)
-cache:flush            false # flush caches on system calls
-cache:icompress        false # convert 64-bit inst addresses to 32-bit inst equivalents
-mem:lat         18 2 # memory access latency (<first_chunk> <inter_chunk>)
-mem:width                  8 # memory access bus width (in bytes)
-tlb:itlb        itlb:16:4096:4:l # instruction TLB config, i.e., {<config>|none}
-tlb:dtlb        dtlb:32:4096:4:l # data TLB config, i.e., {<config>|none}
-tlb:lat                   30 # inst/data TLB miss latency (in cycles)
-res:ialu                   4 # total number of integer ALU's available
-res:imult                  1 # total number of integer multiplier/dividers available
-res:memport                2 # total number of memory system ports available (to CPU)
-res:fpalu                  4 # total number of floating point ALU's available
-res:fpmult                 1 # total number of floating point multiplier/dividers available
# -pcstat              <null> # profile stat(s) against text addr's (mult uses ok)
-bugcompat              false # operate in backward-compatible bugs mode (for testing only)

  Pipetrace range arguments are formatted as follows:

    {{@|#}<start>}:{{@|#|+}<end>}

  Both ends of the range are optional, if neither are specified, the entire
  execution is traced.  Ranges that start with a `@' designate an address
  range to be traced, those that start with an `#' designate a cycle count
  range.  All other range values represent an instruction count range.  The
  second argument, if specified with a `+', indicates a value relative
  to the first argument, e.g., 1000:+100 == 1000:1100.  Program symbols may
  be used in all contexts.

    Examples:   -ptrace FOO.trc #0:#1000
                -ptrace BAR.trc @2000:
                -ptrace BLAH.trc :1500
                -ptrace UXXE.trc :
                -ptrace FOOBAR.trc @main:+278

  Branch predictor configuration examples for 2-level predictor:
    Configurations:   N, M, W, X
      N   # entries in first level (# of shift register(s))
      W   width of shift register(s)
      M   # entries in 2nd level (# of counters, or other FSM)
      X   (yes-1/no-0) xor history and address for 2nd level index
    Sample predictors:
      GAg     : 1, W, 2^W, 0
      GAp     : 1, W, M (M > 2^W), 0
      PAg     : N, W, 2^W, 0
      PAp     : N, W, M (M == 2^(N+W)), 0
      gshare  : 1, W, 2^W, 1
  Predictor `comb' combines a bimodal and a 2-level predictor.

  The cache config parameter <config> has the following format:

    <name>:<nsets>:<bsize>:<assoc>:<repl>

    <name>   - name of the cache being defined
    <nsets>  - number of sets in the cache
    <bsize>  - block size of the cache
    <assoc>  - associativity of the cache
    <repl>   - block replacement strategy, 'l'-LRU, 'f'-FIFO, 'r'-random

    Examples:   -cache:dl1 dl1:4096:32:1:l
                -dtlb dtlb:128:4096:32:r

  Cache levels can be unified by pointing a level of the instruction cache
  hierarchy at the data cache hiearchy using the "dl1" and "dl2" cache
  configuration arguments.  Most sensible combinations are supported, e.g.,

    A unified l2 cache (il2 is pointed at dl2):
      -cache:il1 il1:128:64:1:l -cache:il2 dl2
      -cache:dl1 dl1:256:32:1:l -cache:dl2 ul2:1024:64:2:l

    Or, a fully unified cache hierarchy (il1 pointed at dl1):
      -cache:il1 dl1
      -cache:dl1 ul1:256:32:1:l -cache:dl2 ul2:1024:64:2:l



sim: ** starting performance simulation **
warning: partially supported sigaction() call...
Unknown flag: 'O'; Usage: compress [-dfvcV] [-b maxbits] [file ...]

sim: ** simulation statistics **
sim_num_insn                   4908 # total number of instructions committed
sim_num_refs                   1474 # total number of loads and stores committed
sim_num_loads                   841 # total number of loads committed
sim_num_stores             633.0000 # total number of stores committed
sim_num_branches                939 # total number of branches committed
sim_elapsed_time                  1 # total simulation time in seconds
sim_inst_rate             4908.0000 # simulation speed (in insts/sec)
sim_total_insn                 9861 # total number of instructions executed
sim_total_refs                 3563 # total number of loads and stores executed
sim_total_loads                2121 # total number of loads executed
sim_total_stores          1442.0000 # total number of stores executed
sim_total_branches             1629 # total number of branches executed
sim_cycle                     11416 # total simulation time in cycles
sim_IPC                      0.4299 # instructions per cycle
sim_CPI                      2.3260 # cycles per instruction
sim_exec_BW                  0.8638 # total instructions (mis-spec + committed) per cycle
sim_IPB                      5.2268 # instruction per branch
IFQ_count                     16556 # cumulative IFQ occupancy
IFQ_fcount                     3629 # cumulative IFQ full count
ifq_occupancy                1.4502 # avg IFQ occupancy (insn's)
ifq_rate                     0.8638 # avg IFQ dispatch rate (insn/cycle)
ifq_latency                  1.6789 # avg IFQ occupant latency (cycle's)
ifq_full                     0.3179 # fraction of time (cycle's) IFQ was full
RUU_count                     50721 # cumulative RUU occupancy
RUU_fcount                      776 # cumulative RUU full count
ruu_occupancy                4.4430 # avg RUU occupancy (insn's)
ruu_rate                     0.8638 # avg RUU dispatch rate (insn/cycle)
ruu_latency                  5.1436 # avg RUU occupant latency (cycle's)
ruu_full                     0.0680 # fraction of time (cycle's) RUU was full
LSQ_count                     18694 # cumulative LSQ occupancy
LSQ_fcount                      584 # cumulative LSQ full count
lsq_occupancy                1.6375 # avg LSQ occupancy (insn's)
lsq_rate                     0.8638 # avg LSQ dispatch rate (insn/cycle)
lsq_latency                  1.8958 # avg LSQ occupant latency (cycle's)
lsq_full                     0.0512 # fraction of time (cycle's) LSQ was full
sim_slip                      48124 # total number of slip cycles
avg_sim_slip                 9.8052 # the average slip between issue and retirement
bpred_nottaken.lookups         2226 # total number of bpred lookups
bpred_nottaken.updates          939 # total number of updates
bpred_nottaken.addr_hits          187 # total number of address-predicted hits
bpred_nottaken.dir_hits          187 # total number of direction-predicted hits (includes addr-hits)
bpred_nottaken.misses           752 # total number of misses
bpred_nottaken.jr_hits            0 # total number of address-predicted hits for JR's
bpred_nottaken.jr_seen          230 # total number of JR's seen
bpred_nottaken.jr_non_ras_hits.PP            0 # total number of address-predicted hits for non-RAS JR's
bpred_nottaken.jr_non_ras_seen.PP          230 # total number of non-RAS JR's seen
bpred_nottaken.bpred_addr_rate    0.1991 # branch address-prediction rate (i.e., addr-hits/updates)
bpred_nottaken.bpred_dir_rate    0.1991 # branch direction-prediction rate (i.e., all-hits/updates)
bpred_nottaken.bpred_jr_rate    0.0000 # JR address-prediction rate (i.e., JR addr-hits/JRs seen)
bpred_nottaken.bpred_jr_non_ras_rate.PP    0.0000 # non-RAS JR addr-pred rate (ie, non-RAS JR hits/JRs seen)
bpred_nottaken.retstack_pushes            0 # total number of address pushed onto ret-addr stack
bpred_nottaken.retstack_pops            0 # total number of address popped off of ret-addr stack
bpred_nottaken.used_ras.PP            0 # total number of RAS predictions used
bpred_nottaken.ras_hits.PP            0 # total number of RAS hits
bpred_nottaken.ras_rate.PP <error: divide by zero> # RAS prediction rate (i.e., RAS hits/used RAS)
il1.accesses                  12598 # total number of accesses
il1.hits                      12325 # total number of hits
il1.misses                      273 # total number of misses
il1.replacements                 45 # total number of replacements
il1.writebacks                    0 # total number of writebacks
il1.invalidations                 0 # total number of invalidations
il1.miss_rate                0.0217 # miss rate (i.e., misses/ref)
il1.repl_rate                0.0036 # replacement rate (i.e., repls/ref)
il1.wb_rate                  0.0000 # writeback rate (i.e., wrbks/ref)
il1.inv_rate                 0.0000 # invalidation rate (i.e., invs/ref)
dl1.accesses                   1931 # total number of accesses
dl1.hits                       1560 # total number of hits
dl1.misses                      371 # total number of misses
dl1.replacements                  5 # total number of replacements
dl1.writebacks                    1 # total number of writebacks
dl1.invalidations                 0 # total number of invalidations
dl1.miss_rate                0.1921 # miss rate (i.e., misses/ref)
dl1.repl_rate                0.0026 # replacement rate (i.e., repls/ref)
dl1.wb_rate                  0.0005 # writeback rate (i.e., wrbks/ref)
dl1.inv_rate                 0.0000 # invalidation rate (i.e., invs/ref)
ul2.accesses                    645 # total number of accesses
ul2.hits                        282 # total number of hits
ul2.misses                      363 # total number of misses
ul2.replacements                  0 # total number of replacements
ul2.writebacks                    0 # total number of writebacks
ul2.invalidations                 0 # total number of invalidations
ul2.miss_rate                0.5628 # miss rate (i.e., misses/ref)
ul2.repl_rate                0.0000 # replacement rate (i.e., repls/ref)
ul2.wb_rate                  0.0000 # writeback rate (i.e., wrbks/ref)
ul2.inv_rate                 0.0000 # invalidation rate (i.e., invs/ref)
itlb.accesses                 12598 # total number of accesses
itlb.hits                     12586 # total number of hits
itlb.misses                      12 # total number of misses
itlb.replacements                 0 # total number of replacements
itlb.writebacks                   0 # total number of writebacks
itlb.invalidations                0 # total number of invalidations
itlb.miss_rate               0.0010 # miss rate (i.e., misses/ref)
itlb.repl_rate               0.0000 # replacement rate (i.e., repls/ref)
itlb.wb_rate                 0.0000 # writeback rate (i.e., wrbks/ref)
itlb.inv_rate                0.0000 # invalidation rate (i.e., invs/ref)
dtlb.accesses                  1937 # total number of accesses
dtlb.hits                      1925 # total number of hits
dtlb.misses                      12 # total number of misses
dtlb.replacements                 0 # total number of replacements
dtlb.writebacks                   0 # total number of writebacks
dtlb.invalidations                0 # total number of invalidations
dtlb.miss_rate               0.0062 # miss rate (i.e., misses/ref)
dtlb.repl_rate               0.0000 # replacement rate (i.e., repls/ref)
dtlb.wb_rate                 0.0000 # writeback rate (i.e., wrbks/ref)
dtlb.inv_rate                0.0000 # invalidation rate (i.e., invs/ref)
sim_invalid_addrs                 0 # total non-speculative bogus addresses seen (debug var)
ld_text_base           0x0120000000 # program text (code) segment base
ld_text_size                  65536 # program text (code) size in bytes
ld_data_base           0x0140000000 # program initialized data segment base
ld_data_size                 743728 # program init'ed `.data' and uninit'ed `.bss' size in bytes
ld_stack_base          0x011ff9b000 # program stack segment base (highest address in stack)
ld_stack_size                 16384 # program initial stack size
ld_prog_entry          0x0120002050 # program entry point (initial PC)
ld_environ_base        0x011ff97000 # program environment base address address
ld_target_big_endian              0 # target executable endian-ness, non-zero if big endian
mem.page_count                   15 # total number of pages allocated
mem.page_mem                   120k # total size of memory pages allocated
mem.ptab_misses                 553 # total first level page table misses
mem.ptab_accesses            219340 # total page table accesses
mem.ptab_miss_rate           0.0025 # first level page table miss rate

----------------------------------------------------------------------------------------------------------------------------------------

TAKEN

user@ubuntu:~/Downloads/simplesim-3.0$ ./sim-outorder -bpred taken compress95.alpha -O
sim-outorder: SimpleScalar/Alpha Tool Set version 3.0 of August, 2003.
Copyright (c) 1994-2003 by Todd M. Austin, Ph.D. and SimpleScalar, LLC.
All Rights Reserved. This version of SimpleScalar is licensed for academic
non-commercial use.  No portion of this work may be used by any commercial
entity, or for any commercial purpose, without the prior written permission
of SimpleScalar, LLC (info@simplescalar.com).

warning: section `.comment' ignored...
sim: command line: ./sim-outorder -bpred taken compress95.alpha -O 

sim: simulation started @ Wed Dec 29 21:50:03 2021, options follow:

sim-outorder: This simulator implements a very detailed out-of-order issue
superscalar processor with a two-level memory system and speculative
execution support.  This simulator is a performance simulator, tracking the
latency of all pipeline operations.

# -config                     # load configuration from a file
# -dumpconfig                 # dump configuration to a file
# -h                    false # print help message    
# -v                    false # verbose operation     
# -d                    false # enable debug message  
# -i                    false # start in Dlite debugger
-seed                       1 # random number generator seed (0 for timer seed)
# -q                    false # initialize and terminate immediately
# -chkpt               <null> # restore EIO trace execution from <fname>
# -redir:sim           <null> # redirect simulator output to file (non-interactive only)
# -redir:prog          <null> # redirect simulated program output to file
-nice                       0 # simulator scheduling priority
-max:inst                   0 # maximum number of inst's to execute
-fastfwd                    0 # number of insts skipped before timing starts
# -ptrace              <null> # generate pipetrace, i.e., <fname|stdout|stderr> <range>
-fetch:ifqsize              4 # instruction fetch queue size (in insts)
-fetch:mplat                3 # extra branch mis-prediction latency
-fetch:speed                1 # speed of front-end of machine relative to execution core
-bpred                  taken # branch predictor type {nottaken|taken|perfect|bimod|2lev|comb}
-bpred:bimod     2048 # bimodal predictor config (<table size>)
-bpred:2lev      1 1024 8 0 # 2-level predictor config (<l1size> <l2size> <hist_size> <xor>)
-bpred:comb      1024 # combining predictor config (<meta_table_size>)
-bpred:ras                  8 # return address stack size (0 for no return stack)
-bpred:btb       512 4 # BTB config (<num_sets> <associativity>)
# -bpred:spec_update       <null> # speculative predictors update in {ID|WB} (default non-spec)
-decode:width               4 # instruction decode B/W (insts/cycle)
-issue:width                4 # instruction issue B/W (insts/cycle)
-issue:inorder          false # run pipeline with in-order issue
-issue:wrongpath         true # issue instructions down wrong execution paths
-commit:width               4 # instruction commit B/W (insts/cycle)
-ruu:size                  16 # register update unit (RUU) size
-lsq:size                   8 # load/store queue (LSQ) size
-cache:dl1       dl1:128:32:4:l # l1 data cache config, i.e., {<config>|none}
-cache:dl1lat               1 # l1 data cache hit latency (in cycles)
-cache:dl2       ul2:1024:64:4:l # l2 data cache config, i.e., {<config>|none}
-cache:dl2lat               6 # l2 data cache hit latency (in cycles)
-cache:il1       il1:512:32:1:l # l1 inst cache config, i.e., {<config>|dl1|dl2|none}
-cache:il1lat               1 # l1 instruction cache hit latency (in cycles)
-cache:il2                dl2 # l2 instruction cache config, i.e., {<config>|dl2|none}
-cache:il2lat               6 # l2 instruction cache hit latency (in cycles)
-cache:flush            false # flush caches on system calls
-cache:icompress        false # convert 64-bit inst addresses to 32-bit inst equivalents
-mem:lat         18 2 # memory access latency (<first_chunk> <inter_chunk>)
-mem:width                  8 # memory access bus width (in bytes)
-tlb:itlb        itlb:16:4096:4:l # instruction TLB config, i.e., {<config>|none}
-tlb:dtlb        dtlb:32:4096:4:l # data TLB config, i.e., {<config>|none}
-tlb:lat                   30 # inst/data TLB miss latency (in cycles)
-res:ialu                   4 # total number of integer ALU's available
-res:imult                  1 # total number of integer multiplier/dividers available
-res:memport                2 # total number of memory system ports available (to CPU)
-res:fpalu                  4 # total number of floating point ALU's available
-res:fpmult                 1 # total number of floating point multiplier/dividers available
# -pcstat              <null> # profile stat(s) against text addr's (mult uses ok)
-bugcompat              false # operate in backward-compatible bugs mode (for testing only)

  Pipetrace range arguments are formatted as follows:

    {{@|#}<start>}:{{@|#|+}<end>}

  Both ends of the range are optional, if neither are specified, the entire
  execution is traced.  Ranges that start with a `@' designate an address
  range to be traced, those that start with an `#' designate a cycle count
  range.  All other range values represent an instruction count range.  The
  second argument, if specified with a `+', indicates a value relative
  to the first argument, e.g., 1000:+100 == 1000:1100.  Program symbols may
  be used in all contexts.

    Examples:   -ptrace FOO.trc #0:#1000
                -ptrace BAR.trc @2000:
                -ptrace BLAH.trc :1500
                -ptrace UXXE.trc :
                -ptrace FOOBAR.trc @main:+278

  Branch predictor configuration examples for 2-level predictor:
    Configurations:   N, M, W, X
      N   # entries in first level (# of shift register(s))
      W   width of shift register(s)
      M   # entries in 2nd level (# of counters, or other FSM)
      X   (yes-1/no-0) xor history and address for 2nd level index
    Sample predictors:
      GAg     : 1, W, 2^W, 0
      GAp     : 1, W, M (M > 2^W), 0
      PAg     : N, W, 2^W, 0
      PAp     : N, W, M (M == 2^(N+W)), 0
      gshare  : 1, W, 2^W, 1
  Predictor `comb' combines a bimodal and a 2-level predictor.

  The cache config parameter <config> has the following format:

    <name>:<nsets>:<bsize>:<assoc>:<repl>

    <name>   - name of the cache being defined
    <nsets>  - number of sets in the cache
    <bsize>  - block size of the cache
    <assoc>  - associativity of the cache
    <repl>   - block replacement strategy, 'l'-LRU, 'f'-FIFO, 'r'-random

    Examples:   -cache:dl1 dl1:4096:32:1:l
                -dtlb dtlb:128:4096:32:r

  Cache levels can be unified by pointing a level of the instruction cache
  hierarchy at the data cache hiearchy using the "dl1" and "dl2" cache
  configuration arguments.  Most sensible combinations are supported, e.g.,

    A unified l2 cache (il2 is pointed at dl2):
      -cache:il1 il1:128:64:1:l -cache:il2 dl2
      -cache:dl1 dl1:256:32:1:l -cache:dl2 ul2:1024:64:2:l

    Or, a fully unified cache hierarchy (il1 pointed at dl1):
      -cache:il1 dl1
      -cache:dl1 ul1:256:32:1:l -cache:dl2 ul2:1024:64:2:l



sim: ** starting performance simulation **
warning: partially supported sigaction() call...
Unknown flag: 'O'; Usage: compress [-dfvcV] [-b maxbits] [file ...]

sim: ** simulation statistics **
sim_num_insn                   4908 # total number of instructions committed
sim_num_refs                   1474 # total number of loads and stores committed
sim_num_loads                   841 # total number of loads committed
sim_num_stores             633.0000 # total number of stores committed
sim_num_branches                939 # total number of branches committed
sim_elapsed_time                  1 # total simulation time in seconds
sim_inst_rate             4908.0000 # simulation speed (in insts/sec)
sim_total_insn                10776 # total number of instructions executed
sim_total_refs                 3656 # total number of loads and stores executed
sim_total_loads                2214 # total number of loads executed
sim_total_stores          1442.0000 # total number of stores executed
sim_total_branches             1649 # total number of branches executed
sim_cycle                     11363 # total simulation time in cycles
sim_IPC                      0.4319 # instructions per cycle
sim_CPI                      2.3152 # cycles per instruction
sim_exec_BW                  0.9483 # total instructions (mis-spec + committed) per cycle
sim_IPB                      5.2268 # instruction per branch
IFQ_count                     18518 # cumulative IFQ occupancy
IFQ_fcount                     4570 # cumulative IFQ full count
ifq_occupancy                1.6297 # avg IFQ occupancy (insn's)
ifq_rate                     0.9483 # avg IFQ dispatch rate (insn/cycle)
ifq_latency                  1.7184 # avg IFQ occupant latency (cycle's)
ifq_full                     0.4022 # fraction of time (cycle's) IFQ was full
RUU_count                     52992 # cumulative RUU occupancy
RUU_fcount                     1209 # cumulative RUU full count
ruu_occupancy                4.6636 # avg RUU occupancy (insn's)
ruu_rate                     0.9483 # avg RUU dispatch rate (insn/cycle)
ruu_latency                  4.9176 # avg RUU occupant latency (cycle's)
ruu_full                     0.1064 # fraction of time (cycle's) RUU was full
LSQ_count                     19546 # cumulative LSQ occupancy
LSQ_fcount                      586 # cumulative LSQ full count
lsq_occupancy                1.7201 # avg LSQ occupancy (insn's)
lsq_rate                     0.9483 # avg LSQ dispatch rate (insn/cycle)
lsq_latency                  1.8138 # avg LSQ occupant latency (cycle's)
lsq_full                     0.0516 # fraction of time (cycle's) LSQ was full
sim_slip                      47777 # total number of slip cycles
avg_sim_slip                 9.7345 # the average slip between issue and retirement
bpred_taken.lookups            2494 # total number of bpred lookups
bpred_taken.updates             939 # total number of updates
bpred_taken.addr_hits           187 # total number of address-predicted hits
bpred_taken.dir_hits            187 # total number of direction-predicted hits (includes addr-hits)
bpred_taken.misses              752 # total number of misses
bpred_taken.jr_hits               0 # total number of address-predicted hits for JR's
bpred_taken.jr_seen             230 # total number of JR's seen
bpred_taken.jr_non_ras_hits.PP            0 # total number of address-predicted hits for non-RAS JR's
bpred_taken.jr_non_ras_seen.PP          230 # total number of non-RAS JR's seen
bpred_taken.bpred_addr_rate    0.1991 # branch address-prediction rate (i.e., addr-hits/updates)
bpred_taken.bpred_dir_rate    0.1991 # branch direction-prediction rate (i.e., all-hits/updates)
bpred_taken.bpred_jr_rate    0.0000 # JR address-prediction rate (i.e., JR addr-hits/JRs seen)
bpred_taken.bpred_jr_non_ras_rate.PP    0.0000 # non-RAS JR addr-pred rate (ie, non-RAS JR hits/JRs seen)
bpred_taken.retstack_pushes            0 # total number of address pushed onto ret-addr stack
bpred_taken.retstack_pops            0 # total number of address popped off of ret-addr stack
bpred_taken.used_ras.PP            0 # total number of RAS predictions used
bpred_taken.ras_hits.PP            0 # total number of RAS hits
bpred_taken.ras_rate.PP <error: divide by zero> # RAS prediction rate (i.e., RAS hits/used RAS)
il1.accesses                  13599 # total number of accesses
il1.hits                      13322 # total number of hits
il1.misses                      277 # total number of misses
il1.replacements                 46 # total number of replacements
il1.writebacks                    0 # total number of writebacks
il1.invalidations                 0 # total number of invalidations
il1.miss_rate                0.0204 # miss rate (i.e., misses/ref)
il1.repl_rate                0.0034 # replacement rate (i.e., repls/ref)
il1.wb_rate                  0.0000 # writeback rate (i.e., wrbks/ref)
il1.inv_rate                 0.0000 # invalidation rate (i.e., invs/ref)
dl1.accesses                   1939 # total number of accesses
dl1.hits                       1568 # total number of hits
dl1.misses                      371 # total number of misses
dl1.replacements                  5 # total number of replacements
dl1.writebacks                    1 # total number of writebacks
dl1.invalidations                 0 # total number of invalidations
dl1.miss_rate                0.1913 # miss rate (i.e., misses/ref)
dl1.repl_rate                0.0026 # replacement rate (i.e., repls/ref)
dl1.wb_rate                  0.0005 # writeback rate (i.e., wrbks/ref)
dl1.inv_rate                 0.0000 # invalidation rate (i.e., invs/ref)
ul2.accesses                    649 # total number of accesses
ul2.hits                        284 # total number of hits
ul2.misses                      365 # total number of misses
ul2.replacements                  0 # total number of replacements
ul2.writebacks                    0 # total number of writebacks
ul2.invalidations                 0 # total number of invalidations
ul2.miss_rate                0.5624 # miss rate (i.e., misses/ref)
ul2.repl_rate                0.0000 # replacement rate (i.e., repls/ref)
ul2.wb_rate                  0.0000 # writeback rate (i.e., wrbks/ref)
ul2.inv_rate                 0.0000 # invalidation rate (i.e., invs/ref)
itlb.accesses                 13599 # total number of accesses
itlb.hits                     13587 # total number of hits
itlb.misses                      12 # total number of misses
itlb.replacements                 0 # total number of replacements
itlb.writebacks                   0 # total number of writebacks
itlb.invalidations                0 # total number of invalidations
itlb.miss_rate               0.0009 # miss rate (i.e., misses/ref)
itlb.repl_rate               0.0000 # replacement rate (i.e., repls/ref)
itlb.wb_rate                 0.0000 # writeback rate (i.e., wrbks/ref)
itlb.inv_rate                0.0000 # invalidation rate (i.e., invs/ref)
dtlb.accesses                  2012 # total number of accesses
dtlb.hits                      2000 # total number of hits
dtlb.misses                      12 # total number of misses
dtlb.replacements                 0 # total number of replacements
dtlb.writebacks                   0 # total number of writebacks
dtlb.invalidations                0 # total number of invalidations
dtlb.miss_rate               0.0060 # miss rate (i.e., misses/ref)
dtlb.repl_rate               0.0000 # replacement rate (i.e., repls/ref)
dtlb.wb_rate                 0.0000 # writeback rate (i.e., wrbks/ref)
dtlb.inv_rate                0.0000 # invalidation rate (i.e., invs/ref)
sim_invalid_addrs                 0 # total non-speculative bogus addresses seen (debug var)
ld_text_base           0x0120000000 # program text (code) segment base
ld_text_size                  65536 # program text (code) size in bytes
ld_data_base           0x0140000000 # program initialized data segment base
ld_data_size                 743728 # program init'ed `.data' and uninit'ed `.bss' size in bytes
ld_stack_base          0x011ff9b000 # program stack segment base (highest address in stack)
ld_stack_size                 16384 # program initial stack size
ld_prog_entry          0x0120002050 # program entry point (initial PC)
ld_environ_base        0x011ff97000 # program environment base address address
ld_target_big_endian              0 # target executable endian-ness, non-zero if big endian
mem.page_count                   15 # total number of pages allocated
mem.page_mem                   120k # total size of memory pages allocated
mem.ptab_misses                 683 # total first level page table misses
mem.ptab_accesses            221650 # total page table accesses
mem.ptab_miss_rate           0.0031 # first level page table miss rate
